<?xml version="1.0" encoding="UTF-8"?>

<!-- generated on 2023-06-01 12:07:38 by Eclipse SUMO netedit Version 1.17.0
-->

<routes xmlns:xsi="http://www.w3.org/2001/XMLSchema-instance" xsi:noNamespaceSchemaLocation="http://sumo.dlr.de/xsd/routes_file.xsd">
    <!-- Vehicles, persons and containers (sorted by depart) -->
    <flow id="f_0" begin="0.00" fromJunction="A8" toJunction="I0" end="3600.00" period="exp(0.50)"/>
    <flow id="f_1" begin="0.00" fromJunction="I8" toJunction="A0" end="3600.00" period="exp(0.50)"/>
</routes>
